


 11 14  0  0000  0  0  0  0  0999 V2000
    2.1028   -2.1348    0.0000 O   0  0  0  0  0  0  0  0  0  0  0
    3.5749   -0.8137    0.0000 C   0  0  0  0  0  0  0  0  0  0  0
    3.0749    0.0523    0.0000 C   0  0  0  0  0  0  0  0  0  0  0
    2.9078   -1.5507    0.0000 C   0  0  0  0  0  0  0  0  0  0  0
    2.0000   -1.1456    0.0000 C   0  0  0  0  0  0  0  0  0  0  0
    5.3069    0.1863    0.0000 C   0  0  0  0  0  0  0  0  0  0  0
    5.5657    1.1522    0.0000 C   0  0  0  0  0  0  0  0  0  0  0
    2.1031   -0.1569    0.0000 C   0  0  0  0  0  0  0  0  0  0  0
    4.8291    2.1348    0.0000 C   0  0  0  0  0  0  0  0  0  0  0
    7.1389   -0.5725    0.0000 C   0  0  0  0  0  0  0  0  0  0  0
    7.3977    0.3934    0.0000 C   0  0  0  0  0  0  0  0  0  0  0
  1  4  1  0
  1  5  1  0
  2  3  1  0
  2  4  1  0
  2  6  1  0
  3  7  1  0
  3  8  1  0
  4  5  1  0
  5  8  1  0
  6  9  1  0
  6 10  1  0
  7  9  1  0
  7 11  1  0
 10 11  2  0
M  END

> <PUBCHEM_BONDANNOTATIONS>
4  1  3
5  1  3
2  4  3
3  8  3
6  10  3
7  11  3

> <StdInChI>
InChI=1S/C10H12O/c1-2-6-3-5(1)7-4-8-10(11-8)9(6)7/h1-2,5-10H,3-4H2

> <StdInChIKey>
JSTWXIAXKDUEOU-UHFFFAOYSA-N

> <AuxInfo>
1/0/N:11,10,9,8,7,6,3,5,2,4,1/rA:23cOCCCCCCCCCCHHHHHHHHHHHH/rB:;s2;s1s2;s1s4;s2;s3;s3s5;s6s7;s6;s7d10;s2;s3;s4;s5;s6;s7;s8;s8;s9;s9;s10;s11;/rC:2.1028,-2.1348,0;3.5749,-.8137,0;3.0749,.0523,0;2.9078,-1.5507,0;2,-1.1456,0;5.3069,.1863,0;5.5657,1.1522,0;2.1031,-.1569,0;4.8291,2.1348,0;7.1389,-.5725,0;7.3977,.3934,0;3.9644,-1.2961,0;2.8834,.642,0;3.3219,-2.0122,0;1.38,-1.1455,0;5.7774,.5901,0;5.9459,1.642,0;2.037,.4596,0;1.4831,-.1578,0;5.1469,2.6672,0;4.216,2.2268,0;7.4131,-1.1286,0;7.9538,.6676,0;

> <Formula>
C10 H12 O

> <Mw>
148.2017

> <SMILES>
O1C2([H])C([H])([H])C3([H])C4([H])C([H])=C([H])C([H])(C4([H])[H])C3([H])C12[H]

> <CSID>
230675

$$$$
